63

C         16.34530        6.62269       -0.01346
O         15.22536        6.27271       -0.82657
C         14.99120        4.92699       -0.95125
C         15.99387        3.94187       -0.85096
C         15.71253        2.58043       -0.98414
C         14.41210        2.14576       -1.23457
C         13.39396        3.10280       -1.37165
C         12.01232        3.03032       -1.63487
C         11.52252        4.31858       -1.66340
C         10.15568        4.72994       -1.89850
O          9.25044        3.91800       -2.10224
N          9.90317        6.08725       -1.87751
C          8.55474        6.59439       -2.04000
C          8.15503        6.75703       -3.50655
C          6.68514        7.16931       -3.67732
C          6.31900        8.52021       -3.04007
N          7.19513        9.62060       -3.46596
C          7.04141        9.94988       -4.90345
C          5.72008       10.65161       -5.30151
N          5.47967       11.82509       -4.44192
C          5.30540       13.09170       -5.00610
C          5.81740       14.22328       -4.33996
C          5.73490       15.49814       -4.88887
C          5.14209       15.66818       -6.13084
C          4.59654       14.59882       -6.81769
N          4.02573       14.85714       -8.01208
C          3.46824       13.81324       -8.65475
C          3.46842       12.54742       -8.12213
N          4.04344       12.27325       -6.93463
C          4.64500       13.29185       -6.25655
C          5.60179       11.56943       -3.00089
C          6.93862       10.85652       -2.68532
O         12.54691        5.20457       -1.41706
C         13.69511        4.45720       -1.23726
H         16.38290        7.71315        0.06524
H         17.29256        6.30588       -0.46350
H         16.23983        6.21329        0.99768
H         17.03203        4.21219       -0.68056
H         16.51460        1.85061       -0.89915
H         14.19358        1.08676       -1.33529
H         11.41592        2.13966       -1.78894
H         10.68285        6.72295       -1.75215
H          8.50654        7.54599       -1.50570
H          7.86082        5.89996       -1.55094
H          8.30708        5.81127       -4.04156
H          8.81585        7.48517       -3.99076
H          6.04056        6.39538       -3.24116
H          6.44181        7.18289       -4.74656
H          6.39457        8.40550       -1.95156
H          5.26339        8.73237       -3.24619
H          7.18059        9.06244       -5.52977
H          7.87262       10.61466       -5.17544
H          4.87308        9.96140       -5.21256
H          5.83450       10.90607       -6.35865
H          6.33592       14.12467       -3.39101
H          6.14867       16.35147       -4.35826
H          5.09685       16.65989       -6.57425
H          3.01488       14.02779       -9.61495
H          3.00981       11.70992       -8.63374
H          4.76380       10.93344       -2.69085
H          5.51863       12.47364       -2.39031
H          6.99914       10.63904       -1.61224
H          7.76141       11.55479       -2.89106
