   81
FINAL HEAT OF FORMATION =     0.000000
 O     2.936931     8.434245     5.111221
 C     2.282228     9.322990     5.594772
 O     1.026994     9.563646     5.182646
 C     2.703177    10.229957     6.744965
 C     4.209173    10.063005     7.019011
 C     4.548228     9.636535     8.434958
 C     5.585984     8.822536     8.587129
 C     6.093362     8.263570     9.872791
 C     5.401568     8.862215    11.099709
 C     3.893891     9.097830    10.812095
 C     3.209766     9.643507    12.079196
 C     3.569520     8.890971    13.354725
 C     5.082685     8.927364    13.556659
 C     5.771129     8.122364    12.429070
 C     5.435729     6.624199    12.428367
 C     7.295427     8.262923    12.614080
 C     7.762846     7.913284    14.021195
 C     7.069480     8.778594    15.069328
 O     7.568830     8.499863    16.365125
 C     5.528566     8.638908    15.009764
 C     5.078803     7.280099    15.555009
 C     4.951743     9.723631    15.937381
 C     3.194945     7.797718    10.395122
 C     3.768605    10.145764     9.635113
 C     4.341717    11.527328    10.016360
 C     2.289335    10.384113     9.245316
 C     1.882327     9.714561     7.939849
 C     5.016598    11.307457     6.614699
 C     4.651092    11.868822     5.233618
 C     5.399328    13.196616     5.062340
 C     5.117730    10.911924     4.133697
 C     3.126323    12.107463     5.128539
 C     2.360334    11.677559     6.378758
 H     0.793766     8.934386     4.481890
 H     4.548835     9.246341     6.372536
 H     6.121818     8.485471     7.707807
 H     7.169081     8.447668     9.925475
 H     5.968578     7.177964     9.833181
 H     5.832115     9.858723    11.234465
 H     3.499323    10.681622    12.236460
 H     2.125152     9.619162    11.954863
 H     3.197740     7.868890    13.308467
 H     3.062722     9.380238    14.187126
 H     5.388876     9.968693    13.385351
 H     4.474200     6.409053    12.879932
 H     5.427340     6.224132    11.419843
 H     6.182834     6.062317    12.980428
 H     7.807054     7.612238    11.903727
 H     7.592144     9.294671    12.403469
 H     8.842293     8.066144    14.088916
 H     7.575986     6.863927    14.250239
 H     7.326159     9.830702    14.888354
 H     7.358762     7.564470    16.548560
 H     5.640004     6.453688    15.132829
 H     5.200907     7.254782    16.636085
 H     4.024293     7.125444    15.343354
 H     3.918444     9.512070    16.195748
 H     5.530313     9.755664    16.858094
 H     4.999762    10.705507    15.471742
 H     2.134659     7.966080    10.231773
 H     3.284680     7.045587    11.167818
 H     3.621583     7.403444     9.478403
 H     4.273593    12.192529     9.161240
 H     5.386690    11.479897    10.306399
 H     3.770977    11.985662    10.821036
 H     1.623290    10.035799    10.033276
 H     2.107864    11.455042     9.149715
 H     2.027083     8.634626     8.014261
 H     0.822291     9.904034     7.752391
 H     6.075302    11.045851     6.616813
 H     4.881901    12.102638     7.346056
 H     5.256290    13.591784     4.058396
 H     6.461802    13.040460     5.236432
 H     5.046781    13.939021     5.777216
 H     6.187376    10.738473     4.221430
 H     4.910516    11.337085     3.151931
 H     4.610927     9.954598     4.205885
 H     2.732310    11.558364     4.270862
 H     2.927267    13.166591     4.947247
 H     2.607862    12.336354     7.210485
 H     1.288540    11.765959     6.193024
