energy: -202.080166919403 gnorm: 0.000032423294 xtb: 6.5.1 (579679a)
 OpenBabel11012411453D

162170  0  0  1  0  0  0  0  0999 V2000
   -4.2930   -3.4945   -2.1593 O   0  0  0  0  0  0  0  0  0  0  0  0
   -3.9921   -4.5998   -1.7901 C   0  0  0  0  0  0  0  0  0  0  0  0
   -4.3952   -5.6906   -2.4554 O   0  0  0  0  0  0  0  0  0  0  0  0
   -3.1000   -4.9427   -0.6028 C   0  0  2  0  0  0  0  0  0  0  0  0
   -2.7827   -3.6668    0.1983 C   0  0  2  0  0  0  0  0  0  0  0  0
   -1.3084   -3.3397    0.3245 C   0  0  0  0  0  0  0  0  0  0  0  0
   -0.9640   -2.0598    0.3755 C   0  0  0  0  0  0  0  0  0  0  0  0
    0.4201   -1.5235    0.5212 C   0  0  0  0  0  0  0  0  0  0  0  0
    1.4992   -2.6027    0.6591 C   0  0  1  0  0  0  0  0  0  0  0  0
    1.1095   -3.8893   -0.1132 C   0  0  2  0  0  0  0  0  0  0  0  0
    2.2348   -4.9273    0.0613 C   0  0  0  0  0  0  0  0  0  0  0  0
    3.6335   -4.3719   -0.1938 C   0  0  0  0  0  0  0  0  0  0  0  0
    3.9090   -3.1971    0.7424 C   0  0  2  0  0  0  0  0  0  0  0  0
    2.9369   -2.0359    0.4181 C   0  0  1  0  0  0  0  0  0  0  0  0
    3.1346   -1.4236   -0.9771 C   0  0  0  0  0  0  0  0  0  0  0  0
    3.1616   -0.9301    1.4694 C   0  0  0  0  0  0  0  0  0  0  0  0
    4.6207   -0.5118    1.5936 C   0  0  0  0  0  0  0  0  0  0  0  0
    5.5008   -1.7082    1.9414 C   0  0  2  0  0  0  0  0  0  0  0  0
    6.8403   -1.2895    2.1804 O   0  0  0  0  0  0  0  0  0  0  0  0
    5.4094   -2.8356    0.8868 C   0  0  0  0  0  0  0  0  0  0  0  0
    6.1094   -2.4437   -0.4184 C   0  0  0  0  0  0  0  0  0  0  0  0
    6.1719   -4.0379    1.4683 C   0  0  0  0  0  0  0  0  0  0  0  0
    0.9216   -3.6374   -1.6137 C   0  0  0  0  0  0  0  0  0  0  0  0
   -0.2555   -4.4213    0.4841 C   0  0  1  0  0  0  0  0  0  0  0  0
   -0.1574   -4.7177    1.9960 C   0  0  0  0  0  0  0  0  0  0  0  0
   -0.7132   -5.7230   -0.2145 C   0  0  0  0  0  0  0  0  0  0  0  0
   -1.8223   -5.5147   -1.2372 C   0  0  0  0  0  0  0  0  0  0  0  0
   -3.4366   -3.6836    1.5890 C   0  0  0  0  0  0  0  0  0  0  0  0
   -4.9261   -4.0564    1.5738 C   0  0  0  0  0  0  0  0  0  0  0  0
   -5.3934   -4.2214    3.0251 C   0  0  0  0  0  0  0  0  0  0  0  0
   -5.7469   -2.9359    0.9285 C   0  0  0  0  0  0  0  0  0  0  0  0
   -5.1347   -5.3837    0.8063 C   0  0  0  0  0  0  0  0  0  0  0  0
   -3.8352   -5.9736    0.2616 C   0  0  0  0  0  0  0  0  0  0  0  0
   -4.9292   -5.4309   -3.2225 H   0  0  0  0  0  0  0  0  0  0  0  0
   -3.2301   -2.8324   -0.3521 H   0  0  0  0  0  0  0  0  0  0  0  0
   -1.7287   -1.2978    0.2819 H   0  0  0  0  0  0  0  0  0  0  0  0
    0.4437   -0.8731    1.4003 H   0  0  0  0  0  0  0  0  0  0  0  0
    0.6123   -0.8782   -0.3400 H   0  0  0  0  0  0  0  0  0  0  0  0
    1.5157   -2.8988    1.7110 H   0  0  0  0  0  0  0  0  0  0  0  0
    2.2263   -5.3212    1.0772 H   0  0  0  0  0  0  0  0  0  0  0  0
    2.0760   -5.7673   -0.6171 H   0  0  0  0  0  0  0  0  0  0  0  0
    3.7372   -4.0817   -1.2381 H   0  0  0  0  0  0  0  0  0  0  0  0
    4.3487   -5.1736   -0.0087 H   0  0  0  0  0  0  0  0  0  0  0  0
    3.6227   -3.5337    1.7478 H   0  0  0  0  0  0  0  0  0  0  0  0
    3.6368   -2.1004   -1.6593 H   0  0  0  0  0  0  0  0  0  0  0  0
    2.1861   -1.1437   -1.4239 H   0  0  0  0  0  0  0  0  0  0  0  0
    3.7301   -0.5163   -0.9198 H   0  0  0  0  0  0  0  0  0  0  0  0
    2.5641   -0.0528    1.2193 H   0  0  0  0  0  0  0  0  0  0  0  0
    2.8361   -1.2926    2.4461 H   0  0  0  0  0  0  0  0  0  0  0  0
    4.7122    0.2369    2.3847 H   0  0  0  0  0  0  0  0  0  0  0  0
    4.9781   -0.0459    0.6721 H   0  0  0  0  0  0  0  0  0  0  0  0
    5.1744   -2.1216    2.9022 H   0  0  0  0  0  0  0  0  0  0  0  0
    7.1658   -0.8571    1.3824 H   0  0  0  0  0  0  0  0  0  0  0  0
    5.9214   -3.1933   -1.1820 H   0  0  0  0  0  0  0  0  0  0  0  0
    5.7834   -1.4807   -0.7968 H   0  0  0  0  0  0  0  0  0  0  0  0
    7.1867   -2.4061   -0.2596 H   0  0  0  0  0  0  0  0  0  0  0  0
    5.6218   -4.4860    2.2920 H   0  0  0  0  0  0  0  0  0  0  0  0
    6.3561   -4.7967    0.7127 H   0  0  0  0  0  0  0  0  0  0  0  0
    7.1331   -3.7014    1.8509 H   0  0  0  0  0  0  0  0  0  0  0  0
    0.1283   -2.9192   -1.7970 H   0  0  0  0  0  0  0  0  0  0  0  0
    0.6727   -4.5640   -2.1236 H   0  0  0  0  0  0  0  0  0  0  0  0
    1.8340   -3.2660   -2.0611 H   0  0  0  0  0  0  0  0  0  0  0  0
   -0.0581   -3.8051    2.5752 H   0  0  0  0  0  0  0  0  0  0  0  0
    0.6736   -5.3783    2.2269 H   0  0  0  0  0  0  0  0  0  0  0  0
   -1.0632   -5.2153    2.3313 H   0  0  0  0  0  0  0  0  0  0  0  0
    0.1252   -6.2038   -0.7146 H   0  0  0  0  0  0  0  0  0  0  0  0
   -1.0673   -6.4328    0.5337 H   0  0  0  0  0  0  0  0  0  0  0  0
   -1.4892   -4.8217   -2.0115 H   0  0  0  0  0  0  0  0  0  0  0  0
   -2.0591   -6.4679   -1.7152 H   0  0  0  0  0  0  0  0  0  0  0  0
   -3.3186   -2.6883    2.0217 H   0  0  0  0  0  0  0  0  0  0  0  0
   -2.9115   -4.3811    2.2402 H   0  0  0  0  0  0  0  0  0  0  0  0
   -6.4516   -4.4706    3.0602 H   0  0  0  0  0  0  0  0  0  0  0  0
   -5.2470   -3.2971    3.5803 H   0  0  0  0  0  0  0  0  0  0  0  0
   -4.8374   -5.0117    3.5260 H   0  0  0  0  0  0  0  0  0  0  0  0
   -5.5871   -1.9952    1.4523 H   0  0  0  0  0  0  0  0  0  0  0  0
   -6.8079   -3.1738    0.9727 H   0  0  0  0  0  0  0  0  0  0  0  0
   -5.4714   -2.7966   -0.1127 H   0  0  0  0  0  0  0  0  0  0  0  0
   -5.8178   -5.2142   -0.0284 H   0  0  0  0  0  0  0  0  0  0  0  0
   -5.6062   -6.1203    1.4599 H   0  0  0  0  0  0  0  0  0  0  0  0
   -3.1954   -6.2882    1.0852 H   0  0  0  0  0  0  0  0  0  0  0  0
   -4.0614   -6.8548   -0.3407 H   0  0  0  0  0  0  0  0  0  0  0  0
    5.2569   -1.5961    5.1417 O   0  0  0  0  0  0  0  0  0  0  0  0
    5.6184   -0.4566    5.3067 C   0  0  0  0  0  0  0  0  0  0  0  0
    6.4759    0.1464    4.4917 O   0  0  0  0  0  0  0  0  0  0  0  0
    5.0875    0.4678    6.4015 C   0  0  2  0  0  0  0  0  0  0  0  0
    4.3104   -0.3804    7.4319 C   0  0  2  0  0  0  0  0  0  0  0  0
    2.8386   -0.4721    7.1017 C   0  0  0  0  0  0  0  0  0  0  0  0
    2.2910   -1.6687    6.9468 C   0  0  0  0  0  0  0  0  0  0  0  0
    0.8781   -1.9423    6.5555 C   0  0  0  0  0  0  0  0  0  0  0  0
    0.0118   -0.6846    6.4393 C   0  0  1  0  0  0  0  0  0  0  0  0
    0.8388    0.5253    5.9237 C   0  0  2  0  0  0  0  0  0  0  0  0
   -0.0914    1.7480    5.8366 C   0  0  0  0  0  0  0  0  0  0  0  0
   -1.3918    1.4679    5.0898 C   0  0  0  0  0  0  0  0  0  0  0  0
   -2.1602    0.3546    5.8006 C   0  0  2  0  0  0  0  0  0  0  0  0
   -1.3561   -0.9670    5.7296 C   0  0  1  0  0  0  0  0  0  0  0  0
   -1.2127   -1.5360    4.3096 C   0  0  0  0  0  0  0  0  0  0  0  0
   -2.1026   -2.0100    6.5890 C   0  0  0  0  0  0  0  0  0  0  0  0
   -3.5738   -2.1489    6.2161 C   0  0  0  0  0  0  0  0  0  0  0  0
   -4.3100   -0.8141    6.3125 C   0  0  2  0  0  0  0  0  0  0  0  0
   -5.6881   -0.9752    6.0544 O   0  0  0  0  0  0  0  0  0  0  0  0
   -3.6615    0.2809    5.4253 C   0  0  0  0  0  0  0  0  0  0  0  0
   -3.9460    0.0314    3.9407 C   0  0  0  0  0  0  0  0  0  0  0  0
   -4.3488    1.6055    5.7989 C   0  0  0  0  0  0  0  0  0  0  0  0
    1.4214    0.2585    4.5333 C   0  0  0  0  0  0  0  0  0  0  0  0
    2.0239    0.7941    6.9356 C   0  0  1  0  0  0  0  0  0  0  0  0
    1.4951    1.2169    8.3236 C   0  0  0  0  0  0  0  0  0  0  0  0
    2.9769    1.9240    6.4745 C   0  0  0  0  0  0  0  0  0  0  0  0
    4.1754    1.4612    5.6509 C   0  0  0  0  0  0  0  0  0  0  0  0
    4.5979    0.0831    8.8636 C   0  0  0  0  0  0  0  0  0  0  0  0
    6.0771   -0.1031    9.2482 C   0  0  0  0  0  0  0  0  0  0  0  0
    6.3981    0.8315   10.4193 C   0  0  0  0  0  0  0  0  0  0  0  0
    6.3390   -1.5457    9.6855 C   0  0  0  0  0  0  0  0  0  0  0  0
    6.9694    0.2462    8.0406 C   0  0  0  0  0  0  0  0  0  0  0  0
    6.2618    1.1906    7.0754 C   0  0  0  0  0  0  0  0  0  0  0  0
    6.7232   -0.4437    3.7354 H   0  0  0  0  0  0  0  0  0  0  0  0
    4.6959   -1.4018    7.3519 H   0  0  0  0  0  0  0  0  0  0  0  0
    2.8990   -2.5561    7.0678 H   0  0  0  0  0  0  0  0  0  0  0  0
    0.4427   -2.6185    7.2967 H   0  0  0  0  0  0  0  0  0  0  0  0
    0.9071   -2.4967    5.6136 H   0  0  0  0  0  0  0  0  0  0  0  0
   -0.2825   -0.4205    7.4583 H   0  0  0  0  0  0  0  0  0  0  0  0
   -0.3623    2.0795    6.8383 H   0  0  0  0  0  0  0  0  0  0  0  0
    0.4254    2.5730    5.3425 H   0  0  0  0  0  0  0  0  0  0  0  0
   -1.1843    1.2101    4.0527 H   0  0  0  0  0  0  0  0  0  0  0  0
   -1.9817    2.3846    5.0853 H   0  0  0  0  0  0  0  0  0  0  0  0
   -2.1674    0.6237    6.8659 H   0  0  0  0  0  0  0  0  0  0  0  0
   -1.3423   -0.7808    3.5423 H   0  0  0  0  0  0  0  0  0  0  0  0
   -1.9491   -2.3135    4.1279 H   0  0  0  0  0  0  0  0  0  0  0  0
   -0.2401   -1.9957    4.1668 H   0  0  0  0  0  0  0  0  0  0  0  0
   -2.0452   -1.7195    7.6408 H   0  0  0  0  0  0  0  0  0  0  0  0
   -1.6234   -2.9843    6.4840 H   0  0  0  0  0  0  0  0  0  0  0  0
   -4.0553   -2.8576    6.8942 H   0  0  0  0  0  0  0  0  0  0  0  0
   -3.6814   -2.5516    5.2070 H   0  0  0  0  0  0  0  0  0  0  0  0
   -4.2711   -0.4681    7.3523 H   0  0  0  0  0  0  0  0  0  0  0  0
   -5.7880   -1.3247    5.1617 H   0  0  0  0  0  0  0  0  0  0  0  0
   -3.7042   -0.9807    3.6340 H   0  0  0  0  0  0  0  0  0  0  0  0
   -3.3734    0.7218    3.3275 H   0  0  0  0  0  0  0  0  0  0  0  0
   -5.0008    0.2119    3.7359 H   0  0  0  0  0  0  0  0  0  0  0  0
   -4.0109    1.9627    6.7690 H   0  0  0  0  0  0  0  0  0  0  0  0
   -5.4233    1.4435    5.8537 H   0  0  0  0  0  0  0  0  0  0  0  0
   -4.1596    2.3763    5.0565 H   0  0  0  0  0  0  0  0  0  0  0  0
    2.1711   -0.5261    4.5776 H   0  0  0  0  0  0  0  0  0  0  0  0
    1.8727    1.1630    4.1341 H   0  0  0  0  0  0  0  0  0  0  0  0
    0.6489   -0.0401    3.8385 H   0  0  0  0  0  0  0  0  0  0  0  0
    1.0643    2.2147    8.2872 H   0  0  0  0  0  0  0  0  0  0  0  0
    2.3079    1.2375    9.0405 H   0  0  0  0  0  0  0  0  0  0  0  0
    0.7525    0.5261    8.7094 H   0  0  0  0  0  0  0  0  0  0  0  0
    3.3600    2.4346    7.3596 H   0  0  0  0  0  0  0  0  0  0  0  0
    2.4263    2.6693    5.9004 H   0  0  0  0  0  0  0  0  0  0  0  0
    3.8315    0.9933    4.7303 H   0  0  0  0  0  0  0  0  0  0  0  0
    4.7713    2.3315    5.3655 H   0  0  0  0  0  0  0  0  0  0  0  0
    4.3454    1.1365    8.9754 H   0  0  0  0  0  0  0  0  0  0  0  0
    3.9721   -0.4894    9.5512 H   0  0  0  0  0  0  0  0  0  0  0  0
    5.7066    0.6623   11.2424 H   0  0  0  0  0  0  0  0  0  0  0  0
    6.3198    1.8733   10.1151 H   0  0  0  0  0  0  0  0  0  0  0  0
    7.4090    0.6571   10.7818 H   0  0  0  0  0  0  0  0  0  0  0  0
    6.0482   -2.2453    8.9056 H   0  0  0  0  0  0  0  0  0  0  0  0
    5.7748   -1.7815   10.5856 H   0  0  0  0  0  0  0  0  0  0  0  0
    7.3967   -1.6905    9.8965 H   0  0  0  0  0  0  0  0  0  0  0  0
    7.2317   -0.6645    7.4978 H   0  0  0  0  0  0  0  0  0  0  0  0
    7.9000    0.6975    8.3898 H   0  0  0  0  0  0  0  0  0  0  0  0
    6.9566    1.5307    6.3063 H   0  0  0  0  0  0  0  0  0  0  0  0
    5.9003    2.0713    7.6085 H   0  0  0  0  0  0  0  0  0  0  0  0
  1  2  2  0  0  0  0
  2  4  1  0  0  0  0
  3  2  1  0  0  0  0
  4  5  1  1  0  0  0
  4 33  1  0  0  0  0
  5 35  1  6  0  0  0
  5  6  1  0  0  0  0
  5 28  1  0  0  0  0
  6  7  2  0  0  0  0
  6 24  1  0  0  0  0
  7  8  1  0  0  0  0
  8  9  1  0  0  0  0
  8 37  1  0  0  0  0
  9 10  1  6  0  0  0
  9 39  1  0  0  0  0
 10 11  1  0  0  0  0
 10 24  1  1  0  0  0
 11 40  1  0  0  0  0
 12 43  1  0  0  0  0
 12 11  1  0  0  0  0
 12 13  1  0  0  0  0
 13 14  1  6  0  0  0
 13 20  1  0  0  0  0
 13 44  1  0  0  0  0
 14  9  1  1  0  0  0
 14 16  1  0  0  0  0
 15 47  1  0  0  0  0
 15 14  1  0  0  0  0
 16 17  1  0  0  0  0
 16 49  1  0  0  0  0
 17 18  1  0  0  0  0
 17 50  1  0  0  0  0
 18 19  1  0  0  0  0
 18 52  1  1  0  0  0
 20 22  1  0  0  0  0
 20 18  1  0  0  0  0
 21 56  1  0  0  0  0
 21 20  1  0  0  0  0
 22 59  1  0  0  0  0
 22 57  1  0  0  0  0
 23 10  1  0  0  0  0
 24 25  1  1  0  0  0
 25 64  1  0  0  0  0
 25 65  1  0  0  0  0
 25 63  1  0  0  0  0
 26 24  1  0  0  0  0
 26 67  1  0  0  0  0
 27  4  1  0  0  0  0
 27 26  1  0  0  0  0
 28 70  1  0  0  0  0
 28 71  1  0  0  0  0
 29 28  1  0  0  0  0
 29 30  1  0  0  0  0
 30 72  1  0  0  0  0
 30 74  1  0  0  0  0
 30 73  1  0  0  0  0
 31 76  1  0  0  0  0
 31 75  1  0  0  0  0
 31 29  1  0  0  0  0
 32 79  1  0  0  0  0
 32 29  1  0  0  0  0
 33 32  1  0  0  0  0
 33 80  1  0  0  0  0
 34  3  1  0  0  0  0
 36  7  1  0  0  0  0
 38  8  1  0  0  0  0
 41 11  1  0  0  0  0
 42 12  1  0  0  0  0
 45 15  1  0  0  0  0
 46 15  1  0  0  0  0
 48 16  1  0  0  0  0
 51 17  1  0  0  0  0
 53 19  1  0  0  0  0
 54 21  1  0  0  0  0
 55 21  1  0  0  0  0
 58 22  1  0  0  0  0
 60 23  1  0  0  0  0
 61 23  1  0  0  0  0
 62 23  1  0  0  0  0
 66 26  1  0  0  0  0
 68 27  1  0  0  0  0
 69 27  1  0  0  0  0
 77 31  1  0  0  0  0
 78 32  1  0  0  0  0
 81 33  1  0  0  0  0
 82 83  2  0  0  0  0
 83 85  1  0  0  0  0
 84 83  1  0  0  0  0
 85114  1  0  0  0  0
 85 86  1  1  0  0  0
 86116  1  6  0  0  0
 86109  1  0  0  0  0
 87 86  1  0  0  0  0
 88117  1  0  0  0  0
 88 87  2  0  0  0  0
 89 88  1  0  0  0  0
 89118  1  0  0  0  0
 90 95  1  6  0  0  0
 90 89  1  0  0  0  0
 90120  1  0  0  0  0
 91 90  1  1  0  0  0
 92 91  1  0  0  0  0
 92121  1  0  0  0  0
 93 94  1  0  0  0  0
 93 92  1  0  0  0  0
 94 95  1  6  0  0  0
 94125  1  0  0  0  0
 95 96  1  6  0  0  0
 95 97  1  0  0  0  0
 97129  1  0  0  0  0
 98 99  1  0  0  0  0
 98 97  1  0  0  0  0
 98131  1  0  0  0  0
 99133  1  1  0  0  0
100 99  1  0  0  0  0
101103  1  0  0  0  0
101 94  1  0  0  0  0
101 99  1  0  0  0  0
102101  1  0  0  0  0
103139  1  0  0  0  0
103138  1  0  0  0  0
104141  1  0  0  0  0
104 91  1  0  0  0  0
105 91  1  6  0  0  0
105 87  1  0  0  0  0
105106  1  0  0  0  0
106146  1  0  0  0  0
106145  1  0  0  0  0
107105  1  0  0  0  0
107147  1  0  0  0  0
108 85  1  0  0  0  0
108107  1  0  0  0  0
109151  1  0  0  0  0
109110  1  0  0  0  0
109152  1  0  0  0  0
110112  1  0  0  0  0
110111  1  0  0  0  0
111155  1  0  0  0  0
111153  1  0  0  0  0
112158  1  0  0  0  0
112157  1  0  0  0  0
113160  1  0  0  0  0
113110  1  0  0  0  0
114162  1  0  0  0  0
114113  1  0  0  0  0
115 84  1  0  0  0  0
119 89  1  0  0  0  0
122 92  1  0  0  0  0
123 93  1  0  0  0  0
124 93  1  0  0  0  0
126 96  1  0  0  0  0
127 96  1  0  0  0  0
128 96  1  0  0  0  0
130 97  1  0  0  0  0
132 98  1  0  0  0  0
134100  1  0  0  0  0
135102  1  0  0  0  0
136102  1  0  0  0  0
137102  1  0  0  0  0
140103  1  0  0  0  0
142104  1  0  0  0  0
143104  1  0  0  0  0
144106  1  0  0  0  0
148107  1  0  0  0  0
149108  1  0  0  0  0
150108  1  0  0  0  0
154111  1  0  0  0  0
156112  1  0  0  0  0
159113  1  0  0  0  0
161114  1  0  0  0  0
M  END
